examples/national_grid/data/ireland/models/s10.raw
<!DOCTYPE HTML PUBLIC "-//W3C//DTD HTML 4.0 Transitional//EN">
<!-- saved from url=(0069)http://www.eirgrid.com/EirgridPortal/uploads/Publications/s10_web.raw -->
<HTML><HEAD>
<META http-equiv=Content-Type content="text/html; charset=windows-1252">
<META content="MSHTML 6.00.2900.3492" name=GENERATOR></HEAD>
<BODY><PRE>0,   100.00          / PSS/E-29.4    THU, JUL 22 2004  15:53
ESB NATIONAL GRID FORECAST STATEMENT 2004-2010
BASECASE SUMMER 2010
   10,'F_M_____',  38.0000,1,     0.000,     0.000,   1,   1,1.04372, -12.6661,   2
   11,'FMN_LOOP',  38.0000,1,     0.000,     0.000,   1,   1,1.04846, -10.7595,   2
   12,'BEDFORD ',  38.0000,1,     0.000,     0.000,   1,   1,1.05154, -13.4634,   2
   13,'M_R_____',  38.0000,1,     0.000,     0.000,   1,   1,1.04239, -13.3459,   2
   14,'F_I_____',  38.0000,1,     0.000,     0.000,   1,   1,1.03894, -14.0148,   2
   15,'I_M_____',  38.0000,1,     0.000,     0.000,   1,   1,1.03699, -12.8112,   2
   41,'TANEY   ', 110.0000,1,     0.000,     0.000,   1,   1,1.05245,  -7.7766,   1
   51,'MISERY H', 110.0000,1,     0.000,     0.000,   1,   1,1.06454,  -6.5057,   1
   52,'MISERY H',  38.0000,1,     0.000,     0.000,   1,   1,1.06454,  -6.5057,   1
 1021,'ARDNACRU', 110.0000,1,     0.000,     0.000,   7,   1,1.01800,  -7.5999,   1
 1041,'AGHADA  ', 110.0000,1,     0.000,     0.000,   3,   1,1.06416,  -8.7947,   1
 1042,'AGHADA  ', 220.0000,1,     0.000,     0.000,   3,   1,1.06300,  -6.2941,   1
 1061,'ARIGNA  ', 110.0000,1,     0.000,     0.000,   9,   1,1.04755,  -9.2567,   2
 1081,'AHANE   ', 110.0000,1,     0.000,     0.000,   7,   1,1.03423,  -7.2487,   2
 1101,'ANNER   ', 110.0000,1,     0.000,     0.000,   5,   3,1.03910, -13.5989,   5
 1121,'ARKLOW  ', 110.0000,1,     0.000,     0.000,   6,   1,1.05882,  -6.6276,   1
 1122,'ARKLOW  ', 220.0000,1,     0.000,     0.000,   6,   1,1.05320,  -5.2102,   1
 1141,'ATHLONE ', 110.0000,1,     0.000,     0.000,   8,   1,1.05922,  -7.0466,   1
 1151,'ARKLOW B', 110.0000,2,     0.000,     0.000,   6,   1,1.06208,  -6.3657,   1
 1161,'AUGHINIS', 110.0000,1,     0.000,     0.000,   7,   3,1.07500,  -0.5938,   1
 1171,'SEALROCK', 110.0000,1,     0.000,     0.000,   7,   1,1.07589,  -0.5437,   1
 1181,'ARVA    ', 110.0000,1,     0.000,     0.000,  10,   1,1.02652, -10.3676,   1
 1191,'SEALROCK', 110.0000,1,     0.000,     0.000,   7,   1,1.07589,  -0.5437,   1
 1201,'ARTANE  ', 110.0000,1,     0.000,     0.000,   1,   1,1.06567,  -7.3133,   2
 1221,'ATHY    ', 110.0000,1,     0.000,     0.000,   8,   1,1.04577,  -8.4805,   1
 1231,'BALLYWAT', 110.0000,2,     0.000,     0.000,   6,   1,1.03928, -10.0035,   1
 1251,'BOOLTIAG', 110.0000,2,     0.000,     0.000,   7,   1,1.00604,  -7.2927,   1
 1281,'BALLYLIC', 110.0000,1,     0.000,     0.000,   3,   1,1.03519, -11.3169,   2
 1301,'BALLYBEG', 110.0000,1,     0.000,     0.000,   6,   1,1.05316,  -6.6231,   1
 1321,'BLAKE   ', 110.0000,1,     0.000,     0.000,   8,   1,1.04296,  -6.7812,   2
 1341,'BINBANE ', 110.0000,1,     0.000,     0.000,   9,   1,1.00544, -13.0950,   2
 1361,'BALLYDIN', 110.0000,1,     0.000,     0.000,   5,   1,1.04174, -12.8924,   1
 1381,'BARNAHEL', 110.0000,1,     0.000,     0.000,   3,   1,1.05970,  -9.7397,   1
 1401,'BELLACOR', 110.0000,1,     0.000,     0.000,   9,   1,1.04495, -11.3811,   1
 1421,'BLACKROC', 110.0000,1,     0.000,     0.000,   2,   2,1.05453,  -5.7705,   2
 1441,'BANDON  ', 110.0000,1,     0.000,     0.000,   3,   1,1.04032, -11.3757,   1
 1461,'BARRYMOR', 110.0000,1,     0.000,     0.000,   5,   1,1.04863, -11.3766,   2
 1481,'BUTLERST', 110.0000,1,     0.000,     0.000,   5,   1,1.04389, -11.7023,   1
 1501,'BRINNY  ', 110.0000,1,     0.000,     0.000,   3,   1,1.04018, -11.3843,   5
 1511,'BRINNY  ', 110.0000,1,     0.000,     0.000,   3,   1,1.04018, -11.3839,   5
 1541,'BANOGE  ', 110.0000,1,     0.000,     0.000,   6,   1,1.04340,  -8.6527,   1
 1581,'CABRA   ', 110.0000,1,     0.000,     0.000,   1,   2,1.06494,  -7.3461,   2
 1601,'CLASHAVO', 110.0000,1,     0.000,     0.000,   3,   1,1.05310,  -8.4217,   1
 1602,'CLASHAVO', 220.0000,1,     0.000,     0.000,   3,   1,1.04724,  -4.3110,   1
 1621,'COOLROE ', 110.0000,1,     0.000,     0.000,   3,   1,1.05022, -10.0983,   1
 1631,'CORDERRY', 110.0000,1,     0.000,     0.000,   9,   1,1.04607,  -9.5543,   1
 1641,'CASHLA  ', 110.0000,1,     0.000,     0.000,   9,   1,1.05963,  -3.4111,   1
 1642,'CASHLA  ', 220.0000,1,     0.000,     0.000,   9,   1,1.06047,   0.5604,   1
 1661,'CASTLEBA', 110.0000,1,     0.000,     0.000,   9,   1,1.05699, -10.2703,   1
 1681,'CARRIGAD', 110.0000,1,     0.000,     0.000,   3,   1,1.05060,  -9.6561,   1
 1701,'CATH_FAL', 110.0000,1,     0.000,     0.000,   9,   1,1.03500, -11.9139,   1
 1721,'CAHIR   ', 110.0000,1,     0.000,     0.000,   5,   1,1.04649, -13.1936,   1
 1741,'CARRICKM', 110.0000,1,     0.000,     0.000,   2,   2,1.05552,  -5.6704,   2
 1742,'CARRICKM', 220.0000,1,     0.000,     0.000,   2,   2,1.07252,  -2.6207,   1
 1761,'CLIFF   ', 110.0000,1,     0.000,     0.000,   9,   1,1.03640, -11.8847,   1
 1781,'CASTLEFA', 110.0000,1,     0.000,     0.000,   7,   3,1.07461,  -0.6119,   5
 1791,'CASTLEFA', 110.0000,1,     0.000,     0.000,   7,   3,1.07461,  -0.6119,   5
 1801,'COOKSTOW', 110.0000,1,     0.000,     0.000,   1,   2,1.04985,  -7.7805,   2
 1821,'CLOON   ', 110.0000,1,     0.000,     0.000,   9,   1,1.05571,  -6.0116,   2
 1841,'CRANE   ', 110.0000,1,     0.000,     0.000,   6,   1,1.03535, -10.4456,   1
 1861,'CARRICK ', 110.0000,1,     0.000,     0.000,   9,   1,1.05288,  -8.8222,   1
 1871,'COLLEGE ', 110.0000,1,     0.000,     0.000,   2,   1,1.06190,  -5.9273,   1
 1881,'CHARLEVI', 110.0000,1,     0.000,     0.000,   3,   1,1.01467,  -9.7162,   1
 1901,'CARLOW  ', 110.0000,1,     0.000,     0.000,   8,   1,1.05416,  -9.5425,   1
 1921,'COW CROS', 110.0000,1,     0.000,     0.000,   3,   1,1.05963,  -9.6516,   1
 1931,'CUNGHILL', 110.0000,1,     0.000,     0.000,   9,   1,1.04160, -10.6613,   4
 1941,'CUSHALIN', 110.0000,1,     0.000,     0.000,   8,   1,1.07500,  -3.2352,   1
 1961,'CASTLEVI', 110.0000,1,     0.000,     0.000,   3,   1,1.06053,  -9.6870,   1
 1981,'CORRACLA', 110.0000,1,     0.000,     0.000,   9,   1,1.03486, -11.7022,   1
 2001,'CULLENAG', 110.0000,1,     0.000,     0.000,   5,   1,1.05188, -11.2845,   1
 2002,'CULLENAG', 220.0000,1,     0.000,     0.000,   5,   1,1.02609,  -8.5190,   1
 2021,'CITY WES', 110.0000,1,     0.000,     0.000,   1,   1,1.05113,  -7.7179,   2
 2041,'CORDUFF ', 110.0000,1,     0.000,     0.000,   2,   1,1.06276,  -5.8559,   1
 2042,'CORDUFF ', 220.0000,1,     0.000,     0.000,   2,   1,1.07238,  -2.9984,   1
 2081,'DUNKETTL', 110.0000,1,     0.000,     0.000,   3,   1,1.06053,  -9.6870,   5
 2101,'DUNDALK ', 110.0000,1,     0.000,     0.000,  10,   1,1.03328,  -9.2803,   1
 2121,'DRUMLINE', 110.0000,1,     0.000,     0.000,   7,   1,1.00144,  -8.1225,   1
 2141,'DUNGARVA', 110.0000,1,     0.000,     0.000,   5,   1,1.04116, -11.4518,   1
 2161,'DOON    ', 110.0000,1,     0.000,     0.000,   5,   1,1.03968, -13.5649,   1
 2181,'DRYBRIDG', 110.0000,1,     0.000,     0.000,  10,   1,1.03921,  -8.6273,   1
 2202,'DUNSTOWN', 220.0000,1,     0.000,     0.000,   2,   1,1.07123,  -2.3673,   1
 2204,'DUNSTOWN', 380.0000,1,     0.000,     0.000,   2,   1,1.02091,   2.0695,   1
 2221,'DUNMANWA', 110.0000,1,     0.000,     0.000,   3,   1,1.03562, -11.3093,   1
 2231,'DERRYBRI', 110.0000,2,     0.000,     0.000,   9,   1,1.04178,  -5.1911,   1
 2241,'DALLOW  ', 110.0000,1,     0.000,     0.000,   5,   1,1.04956,  -5.7312,   2
 2261,'DERRYIRO', 110.0000,1,     0.000,     0.000,   2,   1,1.03066,  -8.2471,   1
 2281,'DALTON  ', 110.0000,1,     0.000,     0.000,   9,   1,1.05796,  -8.6511,   1
 2301,'DUNFIRTH', 110.0000,1,     0.000,     0.000,   2,   1,1.04126,  -7.5739,   2
 2321,'DRUMKEEN', 110.0000,1,     0.000,     0.000,   9,   1,1.02480, -12.7939,   1
 2361,'ENNIS   ', 110.0000,1,     0.000,     0.000,   7,   1,1.00774,  -7.4229,   1
 2481,'FASS EAS', 110.0000,1,     0.000,     0.000,   2,   2,1.04970,  -5.9414,   2
 2491,'FASS WES', 110.0000,1,     0.000,     0.000,   2,   2,1.04953,  -5.9386,   2
 2521,'FLAGFORD', 110.0000,1,     0.000,     0.000,   9,   1,1.05672,  -8.6450,   1
 2522,'FLAGFORD', 220.0000,1,     0.000,     0.000,   9,   1,1.02383,  -5.8231,   1
 2541,'FRN ST A', 110.0000,1,     0.000,     0.000,   1,   2,1.06322,  -6.6058,   2
 2551,'FRN ST B', 110.0000,1,     0.000,     0.000,   1,   2,1.05533,  -7.4742,   2
 2561,'FIN_URBA', 110.0000,1,     0.000,     0.000,   2,   2,1.06774,  -7.1318,   1
 2562,'FINGLAS ', 220.0000,2,     0.000,     0.000,   2,   2,1.07429,  -2.8982,   1
 2571,'FIN_RURA', 110.0000,1,     0.000,     0.000,   2,   2,1.06157,  -5.9551,   1
 2681,'GILRA   ', 110.0000,1,     0.000,     0.000,   9,   3,1.05787,  -8.9440,   2
 2701,'GLASMORE', 110.0000,1,     0.000,     0.000,   2,   2,1.05837,  -7.9562,   2
 2721,'GRIFFINR', 110.0000,1,     0.000,     0.000,   2,   2,1.05574,  -6.5427,   2
 2731,'GRIFFINR', 110.0000,1,     0.000,     0.000,   2,   1,1.05605,  -6.5218,   2
 2741,'GREAT IS', 110.0000,1,     0.000,     0.000,   6,   1,1.05110, -11.1866,   1
 2742,'GREAT IS', 220.0000,1,     0.000,     0.000,   6,   1,1.02452,  -8.1155,   1
 2761,'GRANGE  ', 110.0000,1,     0.000,     0.000,   1,   2,1.06641,  -7.3027,   2
 2781,'GALWAY  ', 110.0000,1,     0.000,     0.000,   9,   1,1.04720,  -3.9950,   1
 2801,'GOLAGH  ', 110.0000,1,     0.000,     0.000,   9,   1,1.02937, -12.2485,   1
 2821,'GORTAWEE', 110.0000,1,     0.000,     0.000,   9,   1,1.03408, -11.6412,   1
 2841,'GORMAN  ', 110.0000,1,     0.000,     0.000,  10,   1,1.05318,  -8.8548,   1
 2842,'GORMAN  ', 220.0000,1,     0.000,     0.000,  10,   1,1.02353,  -5.7059,   1
 2861,'GRANGE C', 110.0000,1,     0.000,     0.000,   1,   1,1.05271,  -7.7202,   2
 2881,'GLENLARA', 110.0000,1,     0.000,     0.000,   3,   1,1.00357, -10.3479,   2
 2921,'HAULBOWL', 110.0000,1,     0.000,     0.000,   3,   3,1.06107,  -9.6614,   5
 2931,'HAULBOWL', 110.0000,1,     0.000,     0.000,   3,   3,1.05971,  -9.7399,   5
 2941,'HAROLDS ', 110.0000,1,     0.000,     0.000,   1,   2,1.06374,  -6.5640,   2
 2962,'HUNTSTOW', 220.0000,1,     0.000,     0.000,   2,   1,1.07495,  -2.7991,   1
 2981,'HARNETTS', 110.0000,1,     0.000,     0.000,   3,   1,1.04966,  -9.7148,   2
 3061,'INISCARR', 110.0000,1,     0.000,     0.000,   3,   1,1.05091,  -9.9726,   1
 3081,'INCHICOR', 110.0000,1,     0.000,     0.000,   1,   2,1.05830,  -7.2874,   2
 3082,'INCHICOR', 220.0000,1,     0.000,     0.000,   2,   2,1.07236,  -3.2032,   1
 3101,'IKERRIN ', 110.0000,1,     0.000,     0.000,   5,   1,1.01996, -11.3030,   2
 3122,'IRISHTOW', 220.0000,1,     0.000,     0.000,   2,   1,1.07600,  -2.2999,   1
 3201,'KNOCKRAH', 110.0000,1,     0.000,     0.000,   3,   1,1.06375,  -9.5280,   1
 3202,'KNOCKRAH', 220.0000,1,     0.000,     0.000,   3,   1,1.05111,  -6.7121,   1
 3221,'KILBARRY', 110.0000,1,     0.000,     0.000,   3,   1,1.05268, -10.1009,   1
 3241,'KILTEEL ', 110.0000,1,     0.000,     0.000,   8,   1,1.04190,  -6.9100,   2
 3261,'KILKENNY', 110.0000,1,     0.000,     0.000,   8,   1,1.01279, -12.1246,   1
 3281,'KILLONAN', 110.0000,1,     0.000,     0.000,   7,   1,1.03478,  -7.2087,   1
 3282,'KILLONAN', 220.0000,1,     0.000,     0.000,   7,   1,1.04635,  -3.3619,   1
 3301,'KNOCKERA', 110.0000,1,     0.000,     0.000,   7,   1,1.01265,  -6.8465,   1
 3321,'KNOCKUMB', 110.0000,1,     0.000,     0.000,  10,   3,1.04517,  -9.2842,   5
 3341,'KELLIS  ', 110.0000,1,     0.000,     0.000,   8,   1,1.05969,  -9.4033,   1
 3342,'KELLIS  ', 220.0000,1,     0.000,     0.000,   8,   1,1.02838,  -6.3166,   1
 3361,'KILTOY  ', 110.0000,1,     0.000,     0.000,   9,   3,1.01878, -13.3720,   5
 3371,'KILTOY  ', 110.0000,1,     0.000,     0.000,   9,   3,1.01869, -13.3773,   5
 3381,'KINNEGAD', 110.0000,1,     0.000,     0.000,   2,   1,1.03311,  -8.1462,   1
 3401,'KILLOTER', 110.0000,1,     0.000,     0.000,   5,   1,1.04486, -11.6595,   1
 3421,'KILMORE ', 110.0000,1,     0.000,     0.000,   1,   1,1.06691,  -7.2464,   2
 3441,'KILMURRY', 110.0000,1,     0.000,     0.000,   8,   1,1.04271, -11.4943,   1
 3501,'LANESBOR', 110.0000,1,     0.000,     0.000,   9,   1,1.07000,  -6.8850,   1
 3521,'LOUTH   ', 110.0000,1,     0.000,     0.000,  10,   1,1.05301,  -8.3661,   1
 3522,'LOUTH   ', 220.0000,1,     0.000,     0.000,  10,   1,1.02074,  -6.1566,   1
 3541,'LIMERICK', 110.0000,1,     0.000,     0.000,   7,   1,1.02901,  -6.7992,   1
 3561,'LISDRUM ', 110.0000,1,     0.000,     0.000,  10,   1,1.00792, -10.4122,   1
 3581,'LETTERKE', 110.0000,1,     0.000,     0.000,   9,   1,1.01990, -13.3010,   1
 3601,'LIBERTY ', 110.0000,1,     0.000,     0.000,   3,   1,1.05579, -10.0360,   2
 3611,'LIBERTY ', 110.0000,1,     0.000,     0.000,   3,   1,1.05594, -10.0221,   2
 3621,'LISHEEN ', 110.0000,1,     0.000,     0.000,   5,   1,1.01920, -13.5888,   1
 3761,'MACETOWN', 110.0000,1,     0.000,     0.000,   2,   2,1.05892,  -6.1501,   1
 3781,'MCDERMOT', 110.0000,1,     0.000,     0.000,   1,   2,1.06477,  -7.3581,   2
 3801,'MIDLETON', 110.0000,1,     0.000,     0.000,   3,   1,1.05573,  -9.7135,   1
 3821,'MEATH HI', 110.0000,1,     0.000,     0.000,  10,   1,1.04079,  -9.0704,   2
 3841,'MAYNOOTH', 110.0000,1,     0.000,     0.000,   2,   2,1.05721,  -6.4098,   1
 3842,'MAYNOOTH', 220.0000,1,     0.000,     0.000,   2,   2,1.06517,  -3.3806,   1
 3861,'MILLTOWN', 110.0000,1,     0.000,     0.000,   1,   2,1.06465,  -6.4572,   2
 3871,'MILLTOWN', 110.0000,1,     0.000,     0.000,   1,   2,1.05287,  -7.7482,   2
 3881,'MACROOM ', 110.0000,1,     0.000,     0.000,   3,   1,1.05052,  -9.6420,   1
 3901,'MONETEEN', 110.0000,1,     0.000,     0.000,   7,   1,1.03625,  -5.7356,   1
 3941,'MONEYPOI', 110.0000,1,     0.000,     0.000,   7,   1,1.00216,  -7.4346,   1
 3942,'MONEYPOI', 220.0000,1,     0.000,     0.000,   7,   1,1.07157,   5.4334,   1
 3944,'MNYPG1G3', 380.0000,1,     0.000,     6.000,   2,   1,1.07500,   8.8531,   1
 3954,'MNYPG2  ', 380.0000,1,     0.000,     6.000,   7,   1,1.07500,  10.1598,   1
 3961,'MARINA  ', 110.0000,1,     0.000,     0.000,   3,   1,1.05600, -10.0180,   1
 3981,'MUNGRET ', 110.0000,1,     0.000,     0.000,   7,   3,1.03606,  -5.7468,   5
 3991,'MUNGRET ', 110.0000,1,     0.000,     0.000,   7,   3,1.03606,  -5.7463,   5
 4001,'MULLINGA', 110.0000,1,     0.000,     0.000,   9,   1,1.03761,  -7.9689,   1
 4021,'MALLOW  ', 110.0000,1,     0.000,     0.000,   3,   1,1.02374, -10.3111,   1
 4041,'MOY     ', 110.0000,1,     0.000,     0.000,   9,   1,1.04025, -12.0757,   1
 4061,'MULLAGHA', 110.0000,1,     0.000,     0.000,  10,   1,1.03951,  -9.0013,   2
 4071,'MEENTYCA', 110.0000,2,     0.000,     0.000,   9,   1,1.02669, -12.5620,   1
 4081,'MONREAD ', 110.0000,1,     0.000,     0.000,   8,   1,1.04053,  -6.8686,   1
 4201,'NEWBRIDG', 110.0000,1,     0.000,     0.000,   8,   1,1.04234,  -6.5489,   1
 4221,'NAVAN   ', 110.0000,1,     0.000,     0.000,  10,   1,1.04866,  -9.0793,   1
 4242,'NORTH WA', 220.0000,1,     0.000,     0.000,   2,   2,1.07568,  -3.0684,   1
 4261,'NENAGH  ', 110.0000,1,     0.000,     0.000,   7,   1,1.01679,  -8.1951,   1
 4281,'NANGOR  ', 110.0000,1,     0.000,     0.000,   1,   1,1.05247,  -7.7371,   1
 4341,'OLDCOURT', 110.0000,1,     0.000,     0.000,   3,   3,1.05964,  -9.6517,   5
 4351,'OLDCOURT', 110.0000,1,     0.000,     0.000,   3,   3,1.05964,  -9.6517,   5
 4361,'OUGHTRAG', 110.0000,1,     0.000,     0.000,   7,   1,1.02139,  -4.7864,   2
 4382,'OLDSTREE', 220.0000,1,     0.000,     0.000,   9,   1,1.07083,   5.9726,   1
 4384,'OLDSTREE', 380.0000,1,     0.000,     0.000,   9,   1,1.06085,   5.7207,   1
 4441,'POLLAPHU', 110.0000,1,     0.000,     0.000,   8,   1,1.05000, -10.1048,   1
 4451,'POOLBEG ', 110.0000,1,     0.000,     0.000,   1,   1,1.06574,  -6.3831,   2
 4461,'POOLBEG ', 110.0000,1,     0.000,     0.000,   1,   1,1.06618,  -6.2782,   2
 4462,'POOLBEG ', 220.0000,1,     0.000,     0.000,   2,   2,1.07500,  -3.1824,   1
 4471,'POOLBEG ', 110.0000,1,     0.000,     0.000,   1,   1,1.06617,  -6.2814,   2
 4481,'PORTLAOI', 110.0000,1,     0.000,     0.000,   8,   1,1.04803,  -6.7383,   1
 4501,'PLATIN  ', 110.0000,1,     0.000,     0.000,  10,   3,1.04169,  -8.4676,   1
 4522,'PROSPECT', 220.0000,1,     0.000,     0.000,   7,   1,1.07366,   4.2129,   1
 4621,'RYEBROOK', 110.0000,1,     0.000,     0.000,   2,   3,1.04847,  -6.9603,   1
 4651,'RINGSEND', 110.0000,1,     0.000,     0.000,   1,   2,1.06573,  -6.3829,   2
 4681,'RATHKEAL', 110.0000,1,     0.000,     0.000,   7,   1,1.03317,  -4.2382,   1
 4701,'RICHMOND', 110.0000,1,     0.000,     0.000,   9,   1,1.05654,  -7.4352,   2
 4721,'RAFFEEN ', 110.0000,1,     0.000,     0.000,   3,   1,1.06104,  -9.6610,   1
 4722,'RAFFEEN ', 220.0000,1,     0.000,     0.000,   3,   1,1.05635,  -7.3694,   1
 4741,'RINAWADE', 110.0000,1,     0.000,     0.000,   2,   3,1.05140,  -6.7908,   1
 4761,'RINGASKI', 110.0000,1,     0.000,     0.000,   3,   1,1.06087,  -9.6706,   2
 4781,'RATRUSSA', 110.0000,1,     0.000,     0.000,  10,   1,1.02128,  -9.2742,   1
 4901,'SHELTON ', 110.0000,1,     0.000,     0.000,   6,   3,1.05882,  -6.6277,   5
...
0 / END OF BUS DATA, BEGIN LOAD DATA
   10,'LD',1,   1,   1,    73.630,    28.250,     0.000,     0.000,     0.000,     0.000,   2
   11,'LD',1,   1,   1,    82.050,    18.740,     0.000,     0.000,     0.000,     0.000,   2
   12,'LD',1,   1,   1,    90.320,    18.610,     0.000,     0.000,     0.000,     0.000,   2
   13,'LD',1,   1,   1,    88.360,    24.440,     0.000,     0.000,     0.000,     0.000,   2
   14,'LD',1,   1,   1,    90.730,    23.500,     0.000,     0.000,     0.000,     0.000,   2
   15,'LD',1,   1,   1,    84.760,    29.480,     0.000,     0.000,     0.000,     0.000,   2
   41,'LD',1,   1,   1,    16.030,     6.250,     0.000,     0.000,     0.000,     0.000,   2
   51,'LD',1,   1,   1,     6.300,     1.960,     0.000,     0.000,     0.000,     0.000,   2
 1101,'LD',1,   5,   2,    11.000,     3.850,     0.000,     0.000,     0.000,     0.000,   5
 1101,'MI',0,   5,   2,     6.500,     1.950,     0.000,     0.000,     0.000,     0.000,   5
 1871,'LD',1,   2,   2,    16.000,     5.250,     0.000,     0.000,     0.000,     0.000,   5
 2821,'LD',1,   9,   2,    16.000,     5.550,     0.000,     0.000,     0.000,     0.000,   5
 2821,'MI',0,   9,   2,     6.000,     1.800,     0.000,     0.000,     0.000,     0.000,   5
 3321,'LD',1,  10,   2,    22.000,     7.480,     0.000,     0.000,     0.000,     0.000,   5
 3321,'MI',0,  10,   2,     1.000,     0.300,     0.000,     0.000,     0.000,     0.000,   5
 3421,'LD',1,   1,   2,    12.000,     4.060,     0.000,     0.000,     0.000,     0.000,   5
 3621,'LD',1,   5,   2,    15.000,     4.930,     0.000,     0.000,     0.000,     0.000,   5
 3621,'MI',0,   5,   2,     2.000,     0.600,     0.000,     0.000,     0.000,     0.000,   5
 4501,'LD',1,  10,   2,    27.000,     9.170,     0.000,     0.000,     0.000,     0.000,   5
 4501,'MI',0,  10,   2,     6.500,     1.950,     0.000,     0.000,     0.000,     0.000,   5
 5031,'LD',1,   2,   1,    13.040,     6.190,     0.000,     0.000,     0.000,     0.000,   2
10204,'LD',1,   7,   1,    17.660,     9.510,     0.000,     0.000,     0.000,     0.000,   2
10205,'LD',1,   7,   1,    55.810,    18.370,     0.000,     0.000,     0.000,     0.000,   2
10471,'LD',1,   3,   1,    10.360,     3.730,     0.000,     0.000,     0.000,     0.000,   3
10602,'LD',1,   9,   1,     6.790,     2.850,     0.000,     0.000,     0.000,     0.000,   2
10801,'LD',1,   7,   1,     6.790,     2.450,     0.000,     0.000,     0.000,     0.000,   2
11204,'LD',1,   6,   1,    17.010,    10.990,     0.000,     0.000,     0.000,     0.000,   2
11404,'LD',1,   9,   1,    55.420,    20.920,     0.000,     0.000,     0.000,     0.000,   2
11671,'LD',1,   7,   1,     1.530,     0.550,     0.000,     0.000,     0.000,     0.000,   1
11672,'LD',1,   7,   1,     1.530,     0.550,     0.000,     0.000,     0.000,     0.000,   4
12001,'LD',1,   1,   1,    12.500,     3.130,     0.000,     0.000,     0.000,     0.000,   2
12202,'LD',1,   8,   1,    15.020,     4.970,     0.000,     0.000,     0.000,     0.000,   2
12804,'LD',1,   3,   1,    13.580,     4.080,     0.000,     0.000,     0.000,     0.000,   2
13001,'LD',1,   6,   1,    16.820,     6.650,     0.000,     0.000,     0.000,     0.000,   2
13204,'LD',1,   8,   1,    18.720,     5.400,     0.000,     0.000,     0.000,     0.000,   2
13404,'LD',1,   9,   1,    24.720,    11.800,     0.000,     0.000,     0.000,     0.000,   2
13601,'LD',1,   5,   2,     5.900,     1.930,     0.000,     0.000,     0.000,     0.000,   5
13601,'MI',0,   5,   2,     1.590,     0.470,     0.000,     0.000,     0.000,     0.000,   5
13604,'LD',1,   5,   1,     3.940,     1.770,     0.000,     0.000,     0.000,     0.000,   2
13802,'LD',1,   3,   1,    30.970,    10.320,     0.000,     0.000,     0.000,     0.000,   2
13804,'LD',1,   3,   1,    29.610,     8.290,     0.000,     0.000,     0.000,     0.000,   2
14002,'LD',1,   9,   1,     5.840,     2.580,     0.000,     0.000,     0.000,     0.000,   2
14204,'LD',1,   2,   1,    48.630,     9.730,     0.000,     0.000,     0.000,     0.000,   2
14401,'LD',1,   3,   1,    10.110,     2.950,     0.000,     0.000,     0.000,     0.000,   2
14404,'LD',1,   3,   1,    25.210,    10.640,     0.000,     0.000,     0.000,     0.000,   2
14604,'LD',1,   5,   1,    35.730,    10.870,     0.000,     0.000,     0.000,     0.000,   2
14804,'LD',1,   5,   1,    35.590,    12.620,     0.000,     0.000,     0.000,     0.000,   2
15001,'LD',1,   3,   2,     4.200,     1.380,     0.000,     0.000,     0.000,     0.000,   5
15001,'MI',0,   3,   2,     2.290,     0.680,     0.000,     0.000,     0.000,     0.000,   5
15401,'LD',1,   6,   1,    15.190,     4.090,     0.000,     0.000,     0.000,     0.000,   2
15801,'LD',1,   1,   1,    16.710,     5.560,     0.000,     0.000,     0.000,     0.000,   2
16202,'LD',1,   3,   1,    12.090,     4.080,     0.000,     0.000,     0.000,     0.000,   2
16604,'LD',1,   9,   1,    52.540,    19.530,     0.000,     0.000,     0.000,     0.000,   2
17004,'LD',1,   9,   1,    14.940,     6.790,     0.000,     0.000,     0.000,     0.000,   2
17204,'LD',1,   5,   1,    22.810,     9.700,     0.000,     0.000,     0.000,     0.000,   2
17404,'LD',1,   2,   1,    70.640,    21.730,     0.000,     0.000,     0.000,     0.000,   2
17802,'LD',1,   7,   2,    44.000,    14.460,     0.000,     0.000,     0.000,     0.000,   5
17802,'MI',0,   7,   2,     5.000,     1.500,     0.000,     0.000,     0.000,     0.000,   5
18004,'LD',1,   1,   1,    78.520,    25.950,     0.000,     0.000,     0.000,     0.000,   2
18204,'LD',1,   9,   1,    22.170,     8.930,     0.000,     0.000,     0.000,     0.000,   2
18402,'LD',1,   6,   1,     3.800,     1.220,     0.000,     0.000,     0.000,     0.000,   2
18404,'LD',1,   6,   1,    16.180,     7.730,     0.000,     0.000,     0.000,     0.000,   2
18604,'LD',1,   9,   1,    38.730,    20.910,     0.000,     0.000,     0.000,     0.000,   2
18804,'LD',1,   3,   1,    15.510,     9.230,     0.000,     0.000,     0.000,     0.000,   2
19004,'LD',1,   8,   1,    46.330,    16.620,     0.000,     0.000,     0.000,     0.000,   2
19204,'LD',1,   3,   1,    20.240,     4.210,     0.000,     0.000,     0.000,     0.000,   2
19471,'LD',1,   8,   1,    11.700,     4.210,     0.000,     0.000,     0.000,     0.000,   4
19601,'LD',1,   3,   1,    15.350,     5.030,     0.000,     0.000,     0.000,     0.000,   2
20201,'LD',1,   1,   1,    10.730,     3.530,     0.000,     0.000,     0.000,     0.000,   2
21004,'LD',1,  10,   1,    63.850,    23.500,     0.000,     0.000,     0.000,     0.000,   2
21204,'LD',1,   7,   1,    43.730,    13.430,     0.000,     0.000,     0.000,     0.000,   2
21404,'LD',1,   5,   1,    27.300,     9.630,     0.000,     0.000,     0.000,     0.000,   2
21604,'LD',1,   5,   1,    33.550,     6.520,     0.000,     0.000,     0.000,     0.000,   2
21804,'LD',1,  10,   1,    68.740,    25.130,     0.000,     0.000,     0.000,     0.000,   2
22204,'LD',1,   3,   1,    38.310,    14.540,     0.000,     0.000,     0.000,     0.000,   2
22404,'LD',1,   5,   1,    12.090,     5.160,     0.000,     0.000,     0.000,     0.000,   2
22804,'LD',1,   9,   1,    17.220,     6.010,     0.000,     0.000,     0.000,     0.000,   2
23001,'LD',1,   2,   1,     6.810,     2.350,     0.000,     0.000,     0.000,     0.000,   2
23604,'LD',1,   7,   1,    54.880,    17.930,     0.000,     0.000,     0.000,     0.000,   2
24804,'LD',1,   2,   1,    51.620,    20.510,     0.000,     0.000,     0.000,     0.000,   2
25604,'LD',1,   2,   1,   106.360,    32.330,     0.000,     0.000,     0.000,     0.000,   2
26802,'LD',1,   9,   2,    12.000,     3.940,     0.000,     0.000,     0.000,     0.000,   5
26802,'MI',0,   9,   2,     2.000,     0.600,     0.000,     0.000,     0.000,     0.000,   5
27004,'LD',1,   2,   1,    38.290,     1.270,     0.000,     0.000,     0.000,     0.000,   2
27204,'LD',1,   2,   1,    53.240,     5.430,     0.000,     0.000,     0.000,     0.000,   2
27404,'LD',1,   6,   1,    14.940,     6.790,     0.000,     0.000,     0.000,     0.000,   2
27471,'LD',0,   6,   1,     3.000,     1.080,     0.000,     0.000,     0.000,     0.000,   3
27472,'LD',0,   6,   1,     3.000,     1.080,     0.000,     0.000,     0.000,     0.000,   3
27473,'LD',0,   6,   1,     8.040,     2.890,     0.000,     0.000,     0.000,     0.000,   3
27604,'LD',1,   1,   1,    41.430,    13.580,     0.000,     0.000,     0.000,     0.000,   2
27802,'LD',1,   9,   1,    13.040,     4.350,     0.000,     0.000,     0.000,     0.000,   2
27804,'LD',1,   9,   1,   113.700,    37.080,     0.000,     0.000,     0.000,     0.000,   2
28604,'LD',1,   1,   1,    13.880,     3.870,     0.000,     0.000,     0.000,     0.000,   2
28804,'LD',1,   3,   1,    13.060,     4.610,     0.000,     0.000,     0.000,     0.000,   2
29401,'LD',1,   1,   1,    16.030,     5.300,     0.000,     0.000,     0.000,     0.000,   2
29671,'LD',1,   2,   2,     6.900,     2.480,     0.000,     0.000,     0.000,     0.000,   4
29801,'LD',1,   3,   1,     9.680,     1.090,     0.000,     0.000,     0.000,     0.000,   2
30804,'LD',1,   1,   1,   100.230,    31.450,     0.000,     0.000,     0.000,     0.000,   2
31004,'LD',1,   5,   1,    27.850,    12.230,     0.000,     0.000,     0.000,     0.000,   2
31271,'LD',1,   2,   2,     6.980,     2.510,     0.000,     0.000,     0.000,     0.000,   4
32201,'LD',1,   3,   1,    11.950,     3.940,     0.000,     0.000,     0.000,     0.000,   2
32204,'LD',1,   3,   1,    79.470,    24.850,     0.000,     0.000,     0.000,     0.000,   2
32404,'LD',1,   8,   1,    17.470,     9.630,     0.000,     0.000,     0.000,     0.000,   2
32604,'LD',1,   8,   1,    63.570,    23.080,     0.000,     0.000,     0.000,     0.000,   2
33004,'LD',1,   7,   1,    51.540,    21.100,     0.000,     0.000,     0.000,     0.000,   2
33601,'LD',1,   9,   2,    18.000,     5.910,     0.000,     0.000,     0.000,     0.000,   5
33601,'MI',0,   9,   2,     4.000,     1.200,     0.000,     0.000,     0.000,     0.000,   5
33801,'LD',1,   2,   2,     7.700,     2.530,     0.000,     0.000,     0.000,     0.000,   5
33801,'MI',0,   2,   2,     2.290,     0.680,     0.000,     0.000,     0.000,     0.000,   5
34001,'LD',1,   5,   1,    10.870,     2.170,     0.000,     0.000,     0.000,     0.000,   2
34404,'LD',1,   8,   1,    20.650,     6.740,     0.000,     0.000,     0.000,     0.000,   2
35004,'LD',1,   9,   1,     8.830,     2.850,     0.000,     0.000,     0.000,     0.000,   2
35078,'LD',1,   9,   3,     8.600,     3.090,     0.000,     0.000,     0.000,     0.000,   3
35404,'LD',1,   7,   1,    69.140,    18.610,     0.000,     0.000,     0.000,     0.000,   2
35604,'LD',1,  10,   1,    31.650,    12.770,     0.000,     0.000,     0.000,     0.000,   2
35804,'LD',1,   9,   1,    49.990,    29.460,     0.000,     0.000,     0.000,     0.000,   2
36001,'LD',1,   3,   1,    17.930,     5.840,     0.000,     0.000,     0.000,     0.000,   2
37601,'LD',1,   2,   1,    13.720,     4.480,     0.000,     0.000,     0.000,     0.000,   2
37602,'LD',1,   2,   2,     5.000,     1.640,     0.000,     0.000,     0.000,     0.000,   5
37602,'MI',0,   2,   2,     6.000,     1.800,     0.000,     0.000,     0.000,     0.000,   5
38001,'LD',1,   3,   1,     7.450,     2.450,     0.000,     0.000,     0.000,     0.000,   2
38004,'LD',1,   3,   1,    29.490,    10.870,     0.000,     0.000,     0.000,     0.000,   2
38204,'LD',1,  10,   1,    44.830,    17.660,     0.000,     0.000,     0.000,     0.000,   2
38804,'LD',1,   3,   1,    11.510,     0.820,     0.000,     0.000,     0.000,     0.000,   2
39471,'LD',1,   9,   1,    19.660,     7.070,     0.000,     0.000,     0.000,     0.000,   3
39472,'LD',1,   2,   2,    20.000,     7.200,     0.000,     0.000,     0.000,     0.000,   3
39473,'LD',1,   7,   1,    19.660,     7.070,     0.000,     0.000,     0.000,     0.000,   3
39601,'LD',1,   3,   1,    26.220,     8.830,     0.000,     0.000,     0.000,     0.000,   2
39672,'LD',1,   3,   1,     2.640,     0.950,     0.000,     0.000,     0.000,     0.000,   3
39675,'LD',1,   3,   1,     4.220,     1.520,     0.000,     0.000,     0.000,     0.000,   3
39801,'LD',1,   7,   2,    20.000,     6.570,     0.000,     0.000,     0.000,     0.000,   5
39801,'MI',0,   7,   2,     7.000,     2.100,     0.000,     0.000,     0.000,     0.000,   5
40004,'LD',1,   9,   1,    37.490,    15.350,     0.000,     0.000,     0.000,     0.000,   2
40204,'LD',1,   3,   1,    21.380,     7.700,     0.000,     0.000,     0.000,     0.000,   2
40404,'LD',1,   9,   1,    29.870,     8.830,     0.000,     0.000,     0.000,     0.000,   2
40602,'LD',1,  10,   2,     8.000,     2.620,     0.000,     0.000,     0.000,     0.000,   5
40801,'LD',1,   8,   1,    14.450,     5.720,     0.000,     0.000,     0.000,     0.000,   2
42004,'LD',1,   8,   1,    43.030,    17.640,     0.000,     0.000,     0.000,     0.000,   2
42204,'LD',1,  10,   1,    55.420,    21.190,     0.000,     0.000,     0.000,     0.000,   2
42604,'LD',1,   7,   1,    18.900,     6.220,     0.000,     0.000,     0.000,     0.000,   2
42802,'LD',1,   1,   2,    26.000,     8.540,     0.000,     0.000,     0.000,     0.000,   5
43604,'LD',1,   7,   1,    21.870,     7.740,     0.000,     0.000,     0.000,     0.000,   2
44671,'LD',0,   2,   2,     5.520,     1.980,     0.000,     0.000,     0.000,     0.000,   3
44672,'LD',0,   2,   2,     5.520,     1.980,     0.000,     0.000,     0.000,     0.000,   3
44673,'LD',1,   2,   2,    11.580,     4.160,     0.000,     0.000,     0.000,     0.000,   3
44804,'LD',1,   8,   1,    32.840,    10.990,     0.000,     0.000,     0.000,     0.000,   2
46210,'LD',1,   2,   2,    24.000,     7.880,     0.000,     0.000,     0.000,     0.000,   5
46214,'LD',1,   2,   2,    21.400,     7.030,     0.000,     0.000,     0.000,     0.000,   5
46224,'LD',1,   2,   2,    31.000,    10.180,     0.000,     0.000,     0.000,     0.000,   5
46501,'LD',1,   1,   1,     5.030,     1.630,     0.000,     0.000,     0.000,     0.000,   2
46804,'LD',1,   7,   1,    32.600,    10.870,     0.000,     0.000,     0.000,     0.000,   2
47004,'LD',1,   9,   1,    28.660,    12.230,     0.000,     0.000,     0.000,     0.000,   2
47402,'LD',1,   2,   2,    16.000,     5.250,     0.000,     0.000,     0.000,     0.000,   5
47601,'LD',1,   3,   1,     3.110,     1.090,     0.000,     0.000,     0.000,     0.000,   2
47802,'LD',1,  10,   1,     0.730,     0.260,     0.000,     0.000,     0.000,     0.000,   4
49478,'LD',1,   5,   1,    12.520,     4.510,     0.000,     0.000,     0.000,     0.000,   3
49604,'LD',1,  10,   1,    75.660,    35.320,     0.000,     0.000,     0.000,     0.000,   2
49804,'LD',1,   9,   1,    49.040,    19.290,     0.000,     0.000,     0.000,     0.000,   2
50004,'LD',1,   9,   1,    30.840,    11.950,     0.000,     0.000,     0.000,     0.000,   2
50276,'LD',1,   2,   2,     9.750,     3.510,     0.000,     0.000,     0.000,     0.000,   3
50604,'LD',1,   8,   1,    19.670,     7.910,     0.000,     0.000,     0.000,     0.000,   2
51471,'LD',0,   7,   1,     3.000,     1.080,     0.000,     0.000,     0.000,     0.000,   3
51472,'LD',0,   7,   1,     3.000,     1.080,     0.000,     0.000,     0.000,     0.000,   3
51473,'LD',1,   7,   1,    14.370,     5.170,     0.000,     0.000,     0.000,     0.000,   3
51474,'LD',1,   7,   1,    14.370,     5.170,     0.000,     0.000,     0.000,     0.000,   3
51771,'LD',1,   9,   1,     6.990,     2.510,     0.000,     0.000,     0.000,     0.000,   4
51801,'LD',1,   1,   1,    14.940,     5.160,     0.000,     0.000,     0.000,     0.000,   2
51804,'LD',1,   3,   1,    43.200,     6.930,     0.000,     0.000,     0.000,     0.000,   2
52204,'LD',1,   7,   1,     9.640,     3.800,     0.000,     0.000,     0.000,     0.000,   2
52604,'LD',1,   7,   1,    30.970,    11.950,     0.000,     0.000,     0.000,     0.000,   2
52804,'LD',1,   7,   1,    50.260,    19.150,     0.000,     0.000,     0.000,     0.000,   2
53004,'LD',1,   5,   1,    29.890,    10.050,     0.000,     0.000,     0.000,     0.000,   2
53204,'LD',1,   2,   1,    31.920,    14.670,     0.000,     0.000,     0.000,     0.000,   2
53404,'LD',1,   9,   1,    13.700,     4.500,     0.000,     0.000,     0.000,     0.000,   2
53604,'LD',1,   9,   1,    13.180,     2.720,     0.000,     0.000,     0.000,     0.000,   2
53804,'LD',1,   5,   1,    18.190,     5.250,     0.000,     0.000,     0.000,     0.000,   2
54404,'LD',1,   5,   1,    27.430,     5.610,     0.000,     0.000,     0.000,     0.000,   2
54801,'LD',1,   3,   2,     0.500,     0.160,     0.000,     0.000,     0.000,     0.000,   5
54801,'MI',0,   3,   2,     7.910,     2.370,     0.000,     0.000,     0.000,     0.000,   5
55004,'LD',1,   6,   1,    48.750,    18.750,     0.000,     0.000,     0.000,     0.000,   2
55201,'LD',1,   1,   1,    37.630,    12.350,     0.000,     0.000,     0.000,     0.000,   2
0 / END OF LOAD DATA, BEGIN GENERATOR DATA
 1151,'1 ',    21.000,     0.000,     0.000,     0.000,1.00000,    0,    60.000,   0.00000,   0.20000,   0.00000,   0.10000,1.00000,1,  100.0,    60.000,     0.000,   1,1.0000
 1231,'1 ',    11.000,     0.000,     0.000,     0.000,1.00000,    0,    31.500,   0.00000,   0.20000,   0.00000,   0.00000,1.00000,1,  100.0,    31.500,     0.000,   4,1.0000
 1251,'1 ',     6.800,     0.000,     0.000,     0.000,1.00000,    0,    19.450,   0.00000,   0.20000,   0.00000,   0.10000,1.00000,1,  100.0,    19.450,     0.000,   1,1.0000
 2231,'1 ',    21.000,     0.000,     0.000,     0.000,1.00000,    0,    60.000,   0.00000,   0.20000,   0.00000,   0.00000,1.00000,1,  100.0,    60.000,     0.000,   1,1.0000
 2562,'X ',   400.000,     0.000,   200.000,  -100.000,1.07500,    0,   480.000,   0.00000,   0.20000,   0.00000,   0.00000,1.00000,0,  200.0,   400.000,    80.000,   4,1.0000
 4071,'1 ',    24.800,     0.000,     0.000,     0.000,1.00000,    0,    71.000,   0.00000,   0.20000,   0.00000,   0.00000,1.00000,1,  100.0,    70.960,     0.000,   1,1.0000
10204,'1 ',     0.900,     0.000,     0.000,     0.000,1.00000,    0,     2.550,   0.00000,   0.20000,   0.00000,   0.20000,1.00000,1,  100.0,     2.550,     0.000,   4,1.0000
10204,'2 ',     0.200,     0.000,     0.000,     0.000,1.00000,    0,     0.660,   0.00000,   0.20000,   0.00000,   0.00000,1.00000,1,  100.0,     0.660,     0.000,   4,1.0000
10271,'1 ',    15.000,    12.521,    15.000,    -7.000,1.01800, 1021,    34.000,   0.00000,   0.22000,   0.00000,   0.00000,1.00000,1,   15.0,    22.000,     5.000,   3,1.0000
10272,'2 ',    22.000,     0.000,    15.000,    -7.000,1.07500, 1021,    34.000,   0.00000,   0.22000,   0.00000,   0.00000,1.00000,0,   15.0,    22.000,     5.000,   3,1.0000
10273,'3 ',    22.000,     0.000,    15.000,    -7.000,1.07500, 1021,    30.000,   0.00000,   0.22000,   0.00000,   0.00000,1.00000,0,   15.0,    22.000,     5.000,   3,1.0000
10274,'4 ',    23.000,     0.000,    15.000,    -7.000,1.07500, 1021,    34.000,   0.00000,   0.22000,   0.00000,   0.00000,1.00000,0,   15.0,    23.000,     5.000,   3,1.0000
10471,'1 ',   230.400,   149.849,   153.000,   -53.000,1.06300, 1042,   318.800,   0.00000,   0.22500,   0.00000,   0.00000,1.00000,1,  153.0,   270.000,    40.000,   3,1.0000
10472,'11',    90.000,     0.000,    60.000,   -30.000,1.07500, 1042,   100.900,   0.00000,   0.12500,   0.00000,   0.00000,1.00000,0,   60.0,    90.000,    20.000,   3,1.0000
10473,'12',    90.000,     0.000,    60.000,   -30.000,1.07500, 1042,   100.900,   0.00000,   0.12500,   0.00000,   0.00000,1.00000,0,   60.0,    90.000,    20.000,   3,1.0000
10474,'14',    90.000,     0.000,    60.000,   -30.000,1.07500, 1042,   100.900,   0.00000,   0.12500,   0.00000,   0.00000,1.00000,0,   60.0,    90.000,    20.000,   3,1.0000
10602,'1 ',     0.400,    -0.180,    -0.180,    -0.180,1.05000,    0,     1.200,   0.00000,   0.20000,   0.00000,   0.20000,1.00000,1,  100.0,     1.200,     0.000,   4,1.0000
10602,'2 ',     1.700,    -0.740,    -0.740,    -0.740,1.05000,    0,     4.850,   0.00000,   0.20000,   0.00000,   0.20000,1.00000,1,  100.0,     4.850,     0.000,   4,1.0000
10602,'3 ',     1.800,    -0.760,    -0.760,    -0.760,1.05000,    0,     5.000,   0.00000,   0.20000,   0.00000,   0.20000,1.00000,1,  100.0,     5.000,     0.000,   4,1.0000
11204,'1 ',     8.900,     0.000,     0.000,     0.000,1.05000,    0,    25.500,   0.00000,   0.20000,   0.00000,   0.20000,1.00000,1,  100.0,    25.500,     0.000,   2,1.0000
11671,'1 ',    76.500,    40.006,    50.000,   -35.000,1.07500, 1161,    93.750,   0.00000,   0.16500,   0.00000,   0.00000,1.00000,1,   50.0,    76.500,     0.000,   4,1.0000
11672,'2 ',    76.500,    40.006,    50.000,   -35.000,1.07500, 1161,    93.750,   0.00000,   0.16500,   0.00000,   0.00000,1.00000,1,   50.0,    76.500,     0.000,   4,1.0000
12804,'1 ',     3.000,     0.000,     0.000,     0.000,1.00000,    0,     8.500,   0.00000,   0.20000,   0.00000,   0.20000,1.00000,1,  100.0,     8.500,     0.000,   1,1.0000
12804,'2 ',     6.800,     0.000,     0.000,     0.000,1.00000,    0,    19.500,   0.00000,   0.20000,   0.00000,   0.00000,1.00000,1,  100.0,    19.500,     0.000,   1,1.0000
13404,'1 ',     0.200,     0.000,     0.000,     0.000,1.05000,    0,     0.660,   0.00000,   0.20000,   0.00000,   0.20000,1.00000,1,  100.0,     0.660,     0.000,   4,1.0000
14002,'3 ',     2.100,    -0.920,    -0.920,    -0.920,1.05000,    0,     6.000,   0.00000,   0.20000,   0.00000,   0.10000,1.00000,1,  100.0,     6.000,     0.000,   3,1.0000
14404,'1 ',     1.600,     0.000,     0.000,     0.000,1.00000,    0,     4.500,   0.00000,   0.20000,   0.00000,   0.00000,1.00000,1,  100.0,     4.500,     0.000,   2,1.0000
14604,'1 ',     0.000,     0.000,     1.000,    -1.000,1.05000,    0,     7.000,   0.00000,   0.15000,   0.00000,   0.10000,1.00000,0,    1.0,     0.000,     0.000,   5,1.0000
16302,'1 ',     1.200,     0.000,     0.000,     0.000,1.00000,    0,     3.400,   0.00000,   0.20000,   0.00000,   0.00000,1.00000,1,  100.0,     3.400,     0.000,   1,1.0000
16302,'2 ',     1.200,     0.000,     0.000,     0.000,1.00000,    0,     3.400,   0.00000,   0.20000,   0.00000,   0.00000,1.00000,1,  100.0,     3.400,     0.000,   1,1.0000
16302,'3 ',     2.400,     0.000,     0.000,     0.000,1.00000,    0,     6.800,   0.00000,   0.20000,   0.00000,   0.00000,1.00000,1,  100.0,     6.800,     0.000,   1,1.0000
16604,'1 ',     1.200,    -0.520,    -0.520,    -0.520,1.05000,    0,     3.400,   0.00000,   0.20000,   0.00000,   0.20000,1.00000,1,  100.0,     3.400,     0.000,   4,1.0000
16604,'2 ',     6.500,     0.000,     0.000,     0.000,1.05000,    0,    18.700,   0.00000,   0.20000,   0.00000,   0.20000,1.00000,1,  100.0,    18.700,     0.000,   4,1.0000
16873,'3 ',     8.000,     0.000,     7.000,    -1.000,1.07500, 1681,    11.500,   0.00000,   0.25000,   0.00000,   0.00000,1.00000,0,    7.0,     8.000,     2.000,   3,1.0000
17004,'4 ',     1.200,     0.000,     0.000,     0.000,1.05000,    0,     3.450,   0.00000,   0.20000,   0.00000,   0.20000,1.00000,1,  100.0,     3.400,     0.000,   2,1.0000
17004,'5 ',     1.100,    -0.470,    -0.470,    -0.470,1.05000,    0,     3.200,   0.00000,   0.20000,   0.00000,   0.20000,1.00000,1,  100.0,     3.100,     0.000,   4,1.0000
17073,'3 ',     8.000,     6.683,     7.000,   -10.000,1.03500, 1701,    30.000,   0.00000,   0.20000,   0.00000,   0.00000,1.00000,1,    7.0,    22.500,     5.000,   3,1.0000
17074,'4 ',    22.500,     0.000,     7.000,   -10.000,1.03500, 1701,    30.000,   0.00000,   0.20000,   0.00000,   0.00000,1.00000,0,    7.0,    22.500,     5.000,   3,1.0000
17671,'1 ',     5.000,     6.683,     7.000,    -3.000,1.03500, 1701,    12.500,   0.00000,   0.15000,   0.00000,   0.00000,1.00000,1,    7.0,    10.000,     3.000,   3,1.0000
17672,'2 ',    10.000,     0.000,     7.000,    -3.000,1.03500, 1701,    12.500,   0.00000,   0.13500,   0.00000,   0.00000,1.00000,0,    7.0,    10.000,     3.000,   3,1.0000
18404,'1 ',     1.800,     0.000,     0.000,     0.000,1.00000,    0,     5.200,   0.00000,   0.20000,   0.00000,   0.20000,1.00000,1,  100.0,     5.200,     0.000,   2,1.0000
19004,'1 ',     0.900,     0.000,     0.000,     0.000,1.05000,    0,     2.550,   0.00000,   0.25400,   0.00000,   0.10000,1.00000,1,  100.0,     2.550,     0.000,   2,1.0000
19402,'1 ',     8.300,   -12.000,     6.000,   -12.000,1.00000,    0,    25.000,   0.00000,   0.20000,   0.00000,   0.10000,1.00000,1,    6.0,    25.000,     0.000,   1,1.0000
19471,'1 ',   130.000,    38.203,    75.000,   -50.000,1.07500, 1941,   153.000,   0.00000,   0.15300,   0.00000,   0.00000,1.00000,1,   75.0,   130.000,    60.000,   4,1.0000
22204,'1 ',     1.600,    -0.700,    -0.700,    -0.700,1.05000,    0,     4.600,   0.00000,   0.20000,   0.00000,   0.20000,1.00000,1,  100.0,     4.600,     0.000,   3,1.0000
22204,'2 ',     2.100,    -0.920,    -0.920,    -0.920,1.05000,    0,     6.000,   0.00000,   0.20000,   0.00000,   0.20000,1.00000,1,  100.0,     6.000,     0.000,   3,1.0000
22204,'3 ',     2.100,     0.000,     0.000,     0.000,1.05000,    0,     5.950,   0.00000,   0.20000,   0.00000,   0.20000,1.00000,1,  100.0,     5.950,     0.000,   4,1.0000
27204,'5 ',     4.000,     0.000,     1.000,    -1.000,1.00000,    0,     5.000,   0.00000,   0.27000,   0.00000,   0.10000,1.00000,0,    1.0,     4.000,     0.000,   3,1.0000
27471,'1 ',    60.000,     0.000,    42.000,    -3.000,1.07500, 2741,    75.000,   0.00000,   0.16000,   0.00000,   0.00000,1.00000,0,   42.0,    60.000,    25.000,   3,1.0000
27472,'2 ',    60.000,     0.000,    40.000,    -3.000,1.07500, 2741,    75.000,   0.00000,   0.16000,   0.00000,   0.00000,1.00000,0,   40.0,    60.000,    25.000,   3,1.0000
27473,'3 ',   120.000,     0.000,    82.000,   -48.000,1.07500, 2742,   150.000,   0.00000,   0.14600,   0.00000,   0.00000,1.00000,0,   82.0,   120.000,    30.000,   3,1.0000
27804,'1 ',     1.200,    -0.500,    -0.500,    -0.500,1.05000,    0,     3.300,   0.00000,   0.20000,   0.00000,   0.20000,1.00000,1,  100.0,     3.300,     0.000,   4,1.0000
27804,'2 ',     0.200,     0.000,     0.000,     0.000,1.05000,    0,     0.675,   0.00000,   0.20000,   0.00000,   0.20000,1.00000,1,  100.0,     0.675,     0.000,   2,1.0000
28002,'1 ',     5.300,    -2.290,    -2.290,    -2.290,1.00000,    0,    15.000,   0.00000,   0.20000,   0.00000,   0.10000,1.00000,1,  100.0,    15.000,     0.000,   4,1.0000
29671,'CT',   230.000,    73.795,   173.000,  -106.000,1.07500, 4462,   288.000,   0.00000,   0.14500,   0.00000,   0.00000,1.00000,1,  173.0,   230.000,   138.000,   4,1.0000
29672,'ST',   120.000,    38.391,    90.000,   -47.000,1.07500, 4462,   150.000,   0.00000,   0.15500,   0.00000,   0.00000,1.00000,1,   90.0,   120.000,    89.000,   4,1.0000
30671,'1 ',     1.000,    10.762,    13.000,    -4.000,1.05400, 3061,    21.400,   0.00000,   0.16000,   0.00000,   0.00000,1.00000,0,    3.0,    15.000,     4.000,   3,1.0000
30671,'2 ',     1.000,     3.000,     3.000,    -1.000,1.05400, 3061,     5.700,   0.00000,   0.14000,   0.00000,   0.00000,1.00000,1,    3.0,     4.000,     1.000,   3,1.0000
31004,'1 ',     0.900,     0.000,     0.000,     0.000,1.00000,    0,     2.550,   0.00000,   0.20000,   0.00000,   0.20000,1.00000,1,  100.0,     2.550,     0.000,   2,1.0000
31271,'1 ',   399.000,    85.313,   200.000,  -114.000,1.07500, 4462,   500.000,   0.00000,   0.19000,   0.00000,   0.00000,1.00000,1,  200.0,   399.000,   163.000,   4,1.0000
32604,'1 ',     0.000,     0.000,     1.000,    -1.000,1.05000,    0,    15.000,   0.00000,   0.15000,   0.00000,   0.10000,1.00000,0,    1.0,     0.000,     0.000,   5,1.0000
33004,'1 ',     3.300,     0.000,     0.000,     0.000,1.00000,    0,     9.350,   0.00000,   0.20000,   0.00000,   0.20000,1.00000,1,  100.0,     9.350,     0.000,   2,1.0000
35078,'8 ',    99.600,    56.261,    62.000,   -40.000,1.07000, 3501,   118.000,   0.00000,   0.13700,   0.00000,   0.00000,1.00000,1,   62.0,   100.000,    40.000,   3,1.0000
35804,'1 ',     5.300,    -2.290,    -2.290,    -2.290,1.05000,    0,    15.000,   0.00000,   0.20000,   0.00000,   0.20000,1.00000,1,  100.0,    15.000,     0.000,   4,1.0000
35804,'2 ',     1.700,    -0.760,    -0.760,    -0.760,1.05000,    0,     5.300,   0.00000,   0.20000,   0.00000,   0.20000,1.00000,1,  100.0,     4.980,     0.000,   4,1.0000
35804,'3 ',     4.200,    -1.840,    -1.840,    -1.840,1.05000,    0,    12.000,   0.00000,   0.20000,   0.00000,   0.20000,1.00000,1,  100.0,    12.000,     0.000,   4,1.0000
35804,'4 ',     0.900,     0.000,     0.000,     0.000,1.05000,    0,     2.550,   0.00000,   0.20000,   0.00000,   0.20000,1.00000,1,  100.0,     2.550,     0.000,   4,1.0000
35804,'5 ',     0.900,     0.000,     0.000,     0.000,1.05000,    0,     2.550,   0.00000,   0.20000,   0.00000,   0.20000,1.00000,1,  100.0,     2.450,     0.000,   4,1.0000
38204,'1 ',     3.700,     0.000,     0.000,     0.000,1.00000,    0,    10.500,   0.00000,   0.20000,   0.00000,   0.20000,1.00000,1,  100.0,    10.500,     0.000,   4,1.0000
38204,'2 ',     1.600,     0.000,     0.000,     0.000,1.00000,    0,     4.500,   0.00000,   0.20000,   0.00000,   0.20000,1.00000,1,  100.0,     4.500,     0.000,   4,1.0000
39471,'1 ',   299.700,    83.240,   160.000,   -70.000,1.07500, 3944,   359.000,   0.00000,   0.17900,   0.00000,   0.00000,1.00000,1,  160.0,   305.000,   115.000,   3,1.0000
39472,'2 ',   305.000,    19.873,   160.000,   -70.000,1.07500, 3954,   359.000,   0.00000,   0.17900,   0.00000,   0.00000,1.00000,1,  160.0,   305.000,   115.000,   3,1.0000
39473,'3 ',   299.700,    83.240,   160.000,   -70.000,1.07500, 3944,   359.000,   0.00000,   0.17900,   0.00000,   0.00000,1.00000,1,  160.0,   305.000,   115.000,   3,1.0000
39672,'2 ',    26.400,    12.913,    15.000,     0.000,1.05600, 3961,    40.000,   0.00000,   0.12200,   0.00000,   0.00000,1.00000,1,   15.0,    30.000,    10.000,   3,1.0000
39675,'GT',    75.500,    51.650,    60.000,   -19.000,1.05600, 3961,   100.900,   0.00000,   0.12500,   0.00000,   0.00000,1.00000,1,   60.0,    90.000,    30.000,   3,1.0000
42404,'1 ',    11.800,     2.843,     5.000,     0.000,1.05000,    0,    20.000,   0.00000,   0.11700,   0.00000,   0.10500,1.07000,1,    5.0,    15.000,     6.000,   3,1.0000
42404,'2 ',    11.800,     2.843,     5.000,     0.000,1.05000,    0,    20.000,   0.00000,   0.11700,   0.00000,   0.10500,1.07000,1,    5.0,    15.000,     6.000,   3,1.0000
42404,'3 ',    11.800,     2.843,     5.000,     0.000,1.05000,    0,    20.000,   0.00000,   0.11700,   0.00000,   0.10000,1.07000,1,    5.0,    15.000,     6.000,   3,1.0000
42474,'4 ',    94.500,    23.461,    55.000,   -20.000,1.07500, 4462,   132.100,   0.00000,   0.13900,   0.00000,   0.00000,1.00000,1,   55.0,   118.000,    40.000,   3,1.0000
42475,'5 ',   109.000,     0.000,    55.000,   -20.000,1.07500, 4462,   132.100,   0.00000,   0.13900,   0.00000,   0.00000,1.00000,0,   55.0,   109.000,    20.000,   3,1.0000
44471,'1 ',     1.000,     3.915,     9.000,   -10.000,1.05000, 4441,    18.800,   0.00000,   0.27000,   0.00000,   0.00000,1.00000,1,    3.0,    15.000,     5.000,   3,1.0000
44471,'4 ',     1.000,     0.000,     3.000,    -1.000,1.05000, 4441,     5.000,   0.00000,   0.27000,   0.00000,   0.00000,1.00000,0,    3.0,     4.000,     1.000,   3,1.0000
44472,'2 ',    15.000,     0.000,     9.000,   -10.000,1.05000, 4441,    18.800,   0.00000,   0.27000,   0.00000,   0.00000,1.00000,0,    9.0,    15.000,     5.000,   3,1.0000
44671,'1 ',   120.000,     0.000,    65.000,   -43.000,1.07500, 4462,   150.000,   0.00000,   0.16700,   0.00000,   0.00000,1.00000,0,   65.0,   120.000,    60.000,   3,1.0000
44672,'2 ',   120.000,     0.000,    66.000,   -46.000,1.07500, 4462,   150.000,   0.00000,   0.16700,   0.00000,   0.00000,1.00000,0,   66.0,   120.000,    60.000,   3,1.0000
44673,'3 ',   231.600,    42.656,   100.000,   -48.000,1.07500, 4462,   318.800,   0.00000,   0.22500,   0.00000,   0.00000,1.00000,1,  100.0,   270.000,    60.000,   3,1.0000
46210,'1 ',     0.000,     0.000,     1.000,    -1.000,1.05000,    0,    20.000,   0.00000,   0.20000,   0.00000,   0.10000,1.00000,0,    1.0,     0.000,     0.000,   5,1.0000
47802,'1 ',    24.500,     0.000,     0.000,     0.000,1.00000,    0,    70.000,   0.00000,   0.20000,   0.00000,   0.10000,1.00000,1,  100.0,    70.000,     0.000,   4,1.0000
47802,'2 ',     8.700,     0.000,     0.000,     0.000,1.00000,    0,    24.800,   0.00000,   0.20000,   0.00000,   0.10000,1.00000,1,  100.0,    24.800,     0.000,   4,1.0000
49478,'8 ',   149.500,    85.377,    93.000,   -59.000,1.07500, 4942,   177.000,   0.00000,   0.12100,   0.00000,   0.00000,1.00000,1,   93.0,   150.000,    55.000,   3,1.0000
49604,'1 ',     1.100,    -0.460,    -0.460,    -0.460,1.05000,    0,     3.000,   0.00000,   0.20000,   0.00000,   0.20000,1.00000,1,  100.0,     3.000,     0.000,   4,1.0000
49604,'2 ',     1.100,     0.000,     0.000,     0.000,1.05000,    0,     3.000,   0.00000,   0.20000,   0.00000,   0.20000,1.00000,1,  100.0,     3.000,     0.000,   4,1.0000
50004,'1 ',     2.700,    -1.170,    -1.170,    -1.170,1.05000,    0,     7.650,   0.00000,   0.20000,   0.00000,   0.20000,1.00000,1,  100.0,     7.650,     0.000,   2,1.0000
50274,'14',   137.200,    31.992,    75.000,   -40.000,1.07500, 4462,   170.000,   0.00000,   0.16200,   0.00000,   0.00000,1.00000,1,   75.0,   150.000,    50.000,   3,1.0000
50275,'15',   137.200,    31.992,    75.000,   -60.000,1.07500, 4462,   170.000,   0.00000,   0.16200,   0.00000,   0.00000,1.00000,1,   75.0,   150.000,    50.000,   3,1.0000
50276,'16',   165.300,    34.125,    80.000,   -40.000,1.07500, 4462,   230.000,   0.00000,   0.15800,   0.00000,   0.00000,1.00000,1,   80.0,   170.000,    30.000,   3,1.0000
51471,'1 ',    60.000,     0.000,    25.000,   -10.000,1.07500, 5142,    75.000,   0.00000,   0.13500,   0.00000,   0.00000,1.00000,0,   25.0,    60.000,    30.000,   3,1.0000
51472,'2 ',    60.000,     0.000,    25.000,   -10.000,1.07500, 5142,    75.000,   0.00000,   0.13500,   0.00000,   0.00000,1.00000,0,   25.0,    60.000,    30.000,   3,1.0000
51473,'3 ',   240.400,    64.257,   110.000,   -45.000,1.07500, 5142,   294.000,   0.00000,   0.20700,   0.00000,   0.00000,1.00000,1,  110.0,   256.000,    40.000,   3,1.0000
51474,'4 ',   240.400,    64.257,   110.000,   -45.000,1.07500, 5142,   294.000,   0.00000,   0.20700,   0.00000,   0.00000,1.00000,1,  110.0,   256.000,    40.000,   3,1.0000
51771,'CT',   258.000,    71.443,   175.000,   -92.000,1.07500, 5172,   292.000,   0.00000,   0.17000,   0.00000,   0.00000,1.00000,1,  175.0,   258.000,   155.000,   4,1.0000
51772,'ST',   140.000,    40.824,   100.000,   -52.000,1.07500, 5172,   166.000,   0.00000,   0.13100,   0.00000,   0.00000,1.00000,1,  100.0,   140.000,   111.000,   4,1.0000
52071,'1 ',    22.841,    13.501,    40.000,   -35.000,1.08000,    0,    87.500,   0.00000,   0.15000,   0.00000,   0.00000,1.00000,1,   40.0,    73.000,   -73.000,   3,1.0000
52071,'2 ',    22.841,    13.501,    40.000,   -35.000,1.08000,    0,    87.500,   0.00000,   0.15000,   0.00000,   0.00000,1.00000,1,   40.0,    73.000,   -73.000,   3,1.0000
52071,'3 ',    22.841,    13.501,    40.000,   -35.000,1.08000,    0,    87.500,   0.00000,   0.15000,   0.00000,   0.00000,1.00000,1,   40.0,    73.000,   -73.000,   3,1.0000
52071,'4 ',    22.841,    13.501,    40.000,   -35.000,1.08000,    0,    87.500,   0.00000,   0.15000,   0.00000,   0.00000,1.00000,1,   40.0,    73.000,   -73.000,   3,1.0000
52204,'1 ',     4.400,     0.000,     0.000,     0.000,1.00000,    0,    12.600,   0.00000,   0.20000,   0.00000,   0.20000,1.00000,1,  100.0,    12.600,     0.000,   4,1.0000
52604,'1 ',     1.500,    -0.660,    -0.660,    -0.660,1.05000,    0,     4.300,   0.00000,   0.20000,   0.00000,   0.20000,1.00000,1,  100.0,     4.290,     0.000,   4,1.0000
52604,'2 ',     2.700,     0.000,     0.000,     0.000,1.05000,    0,     7.600,   0.00000,   0.20000,   0.00000,   0.20000,1.00000,1,  100.0,     7.600,     0.000,   4,1.0000
52804,'1 ',     5.300,    -2.290,    -2.290,    -2.290,1.00000,    0,    15.000,   0.00000,   0.20000,   0.00000,   0.20000,1.00000,1,    1.0,    15.000,     0.000,   4,1.0000
52804,'2 ',     2.400,    -1.040,    -1.040,    -1.040,1.00000,    0,     6.800,   0.00000,   0.20000,   0.00000,   0.20000,1.00000,1,    1.0,     6.800,     0.000,   2,1.0000
52804,'3 ',     1.400,    -0.610,    -0.610,    -0.610,1.00000,    0,     4.000,   0.00000,   0.20000,   0.00000,   0.20000,1.00000,1,    1.0,     4.000,     0.000,   4,1.0000
52804,'4 ',     5.300,     0.000,     0.000,     0.000,1.00000,    0,    15.000,   0.00000,   0.20000,   0.00000,   0.20000,1.00000,1,    1.0,    15.000,     0.000,   2,1.0000
52804,'5 ',     1.800,     0.000,     0.000,     0.000,1.00000,    0,     5.100,   0.00000,   0.20000,   0.00000,   0.20000,1.00000,1,    1.0,     5.100,     0.000,   2,1.0000
53404,'1 ',     2.100,    -0.910,    -0.910,    -0.910,1.05000,    0,     6.000,   0.00000,   0.20000,   0.00000,   0.20000,1.00000,1,  100.0,     5.940,     0.000,   3,1.0000
53604,'1 ',     1.800,    -0.760,    -0.760,    -0.760,1.05000,    0,     5.000,   0.00000,   0.20000,   0.00000,   0.20000,1.00000,1,  100.0,     5.000,     0.000,   4,1.0000
53604,'2 ',     1.700,    -0.730,    -0.730,    -0.730,1.05000,    0,     4.800,   0.00000,   0.20000,   0.00000,   0.20000,1.00000,1,  100.0,     4.800,     0.000,   4,1.0000
53604,'3 ',     4.900,     0.000,     0.000,     0.000,1.05000,    0,    14.000,   0.00000,   0.20000,   0.00000,   0.20000,1.00000,1,  100.0,    14.000,     0.000,   4,1.0000
53604,'4 ',    11.000,     0.000,     0.000,     0.000,1.05000,    0,    31.500,   0.00000,   0.20000,   0.00000,   0.20000,1.00000,1,  100.0,    31.500,     0.000,   4,1.0000
54801,'1 ',     0.000,     0.000,     1.000,    -1.000,1.05000,    0,    10.000,   0.00000,   0.13000,   0.00000,   0.10000,1.00000,0,    1.0,     0.000,     0.000,   5,1.0000
55004,'1 ',     4.100,    -1.800,    -1.800,    -1.800,1.05000,    0,    11.800,   0.00000,   0.20000,   0.00000,   0.20000,1.00000,1,  100.0,    11.800,     0.000,   4,1.0000
55004,'2 ',     7.100,     0.000,     0.000,     0.000,1.05000,    0,    20.250,   0.00000,   0.20000,   0.00000,   0.20000,1.00000,1,  100.0,    20.250,     0.000,   4,1.0000
0 / END OF GENERATOR DATA, BEGIN BRANCH DATA
   11, 42404,'1 ',   0.00360,   0.00391,   0.00207, 9999.00, 9999.00,10998.90,  0.00000,  0.00000,  0.00000,  0.00000,1,   1.00,   2,1.0000
   12,-25404,'1 ',   0.00534,   0.00795,   0.00407, 9999.00, 9999.00,10998.90,  0.00000,  0.00000,  0.00000,  0.00000,1,   1.40,   1,1.0000
   12,-25404,'3 ',   0.00594,   0.00866,   0.00435, 9999.00, 9999.00,10998.90,  0.00000,  0.00000,  0.00000,  0.00000,1,   0.00,   1,1.0000
   12, 46504,'1 ',   0.02132,   0.02114,   0.00329, 9999.00, 9999.00,10998.90,  0.00000,  0.00000,  0.00000,  0.00000,1,   5.14,   1,1.0000
   12, 46504,'2 ',   0.01937,   0.01703,   0.00256, 9999.00, 9999.00,10998.90,  0.00000,  0.00000,  0.00000,  0.00000,1,   3.96,   1,1.0000
   41, -1741,'1 ',   0.00260,   0.00480,   0.07610,  100.00,  100.00,  107.00,  0.00000,  0.00000,  0.00000,  0.00000,0,   5.00,   1,1.0000
   41, -3871,'1 ',   0.00210,   0.00380,   0.06090,  100.00,  100.00,  107.00,  0.00000,  0.00000,  0.00000,  0.00000,1,   4.00,   1,1.0000
   51,  2541,'1 ',   0.00310,   0.00960,   0.03810,  140.00,  140.00,  252.00,  0.00000,  0.00000,  0.00000,  0.00000,1,   6.00,   1,1.0000
   51,  4651,'1 ',   0.00280,   0.00880,   0.03500,  140.00,  140.00,  252.00,  0.00000,  0.00000,  0.00000,  0.00000,1,   5.50,   1,1.0000
 1021,  2121,'1 ',   0.02830,   0.06260,   0.00590,  107.00,  107.00,  138.60,  0.00000,  0.00000,  0.00000,  0.00000,1,  18.20,   1,1.0000
 1021,  2361,'1 ',   0.05100,   0.11280,   0.01050,  107.00,  107.00,  117.70,  0.00000,  0.00000,  0.00000,  0.00000,1,  32.80,   1,1.0000
 1021,  3281,'1 ',   0.01480,   0.03270,   0.00310,  107.00,  107.00,  117.70,  0.00000,  0.00000,  0.00000,  0.00000,1,   9.50,   1,1.0000
 1021,  3541,'1 ',   0.01390,   0.03810,   0.01200,  107.00,  107.00,  138.60,  0.00000,  0.00000,  0.00000,  0.00000,1,  11.70,   1,1.0000
 1041,  5481,'1 ',   0.00490,   0.01070,   0.00100,  107.00,  107.00,  117.70,  0.00000,  0.00000,  0.00000,  0.00000,1,   3.10,   1,1.0000
 1042,  3202,'1 ',   0.00300,   0.02220,   0.03350,  431.00,  431.00,  474.10,  0.00000,  0.00000,  0.00000,  0.00000,1,  25.60,   1,1.0000
 1042,  3202,'2 ',   0.00300,   0.02220,   0.03350,  431.00,  431.00,  474.10,  0.00000,  0.00000,  0.00000,  0.00000,1,  25.60,   1,1.0000
 1042,  4722,'1 ',   0.00320,   0.02340,   0.03530,  431.00,  431.00,  569.80,  0.00000,  0.00000,  0.00000,  0.00000,1,  27.00,   1,1.0000
 1061, 10619,'1 ',   0.00050,   0.00120,   0.00010,   34.00,   34.00,   62.70,  0.00000,  0.00000,  0.00000,  0.00000,1,   0.30,   1,1.0000
 1081,  3281,'1 ',   0.00390,   0.01240,   0.00390,   68.00,  112.00,  121.00,  0.00000,  0.00000,  0.00000,  0.00000,1,   3.80,   1,1.0000
 1101,  2161,'1 ',   0.00310,   0.00690,   0.00060,   45.00,  107.00,  117.70,  0.00000,  0.00000,  0.00000,  0.00000,1,   2.00,   1,1.0000
 1121,  1151,'1 ',   0.00870,   0.02700,   0.10800,  140.00,  140.00,  252.00,  0.00000,  0.00000,  0.00000,  0.00000,1,  17.00,   1,1.0000
 1121,  1301,'1 ',   0.01260,   0.08920,   0.00810,  137.00,  137.00,  180.40,  0.00000,  0.00000,  0.00000,  0.00000,1,  25.00,   1,1.0000
 1121,  1541,'1 ',   0.03520,   0.07770,   0.00730,  107.00,  107.00,  138.60,  0.00000,  0.00000,  0.00000,  0.00000,1,  22.60,   1,1.0000
 1121,  4901,'1 ',   0.00350,   0.00770,   0.00080,   34.00,   34.00,   37.40,  0.00000,  0.00000,  0.00000,  0.00000,1,   2.20,   1,1.0000
 1121,  4911,'2 ',   0.00370,   0.00830,   0.00080,   34.00,   34.00,   37.40,  0.00000,  0.00000,  0.00000,  0.00000,1,   2.40,   1,1.0000
 1122,  1742,'1 ',   0.00620,   0.04620,   0.06970,  431.00,  431.00,  474.10,  0.00000,  0.00000,  0.00000,  0.00000,1,  53.30,   1,1.0000
 1122,  2742,'1 ',   0.01020,   0.07610,   0.11480,  275.00,  431.00,  569.80,  0.00000,  0.00000,  0.00000,  0.00000,1,  87.81,   1,1.0000
 1141,  3501,'1 ',   0.05400,   0.12280,   0.01160,   68.00,   93.00,  102.30,  0.00000,  0.00000,  0.00000,  0.00000,1,  35.80,   1,1.0000
 1141,  4941,'1 ',   0.02250,   0.07210,   0.00740,   93.00,   93.00,  144.10,  0.00000,  0.00000,  0.00000,  0.00000,1,  21.60,   1,1.0000
...